
  EPA STORM WATER MANAGEMENT MODEL - VERSION 5.2 (Build 5.2.4)
  ------------------------------------------------------------

  test 
  WARNING 04: minimum elevation drop used for Conduit A262.A254.383
  WARNING 04: minimum elevation drop used for Conduit A349.A347.25
  WARNING 08: elevation drop exceeds length for Conduit A447.A446.169
  WARNING 08: elevation drop exceeds length for Conduit E090.E092.381
  WARNING 08: elevation drop exceeds length for Conduit E103.E102.235
  WARNING 02: maximum depth increased for Node E019
  WARNING 02: maximum depth increased for Node E027
  WARNING 02: maximum depth increased for Node E191
  WARNING 02: maximum depth increased for Node A208
  WARNING 02: maximum depth increased for Node A225
  WARNING 02: maximum depth increased for Node A233
  WARNING 02: maximum depth increased for Node A249
  WARNING 02: maximum depth increased for Node A264
  WARNING 02: maximum depth increased for Node A298
  WARNING 02: maximum depth increased for Node A324
  WARNING 02: maximum depth increased for Node A346
  WARNING 02: maximum depth increased for Node XXXX000055
  WARNING 02: maximum depth increased for Node XXXX000484
  WARNING 02: maximum depth increased for Node XXXX000490
  WARNING 02: maximum depth increased for Node XXXX000492
  WARNING 02: maximum depth increased for Node XXXX000497
  WARNING 02: maximum depth increased for Node XXXX000499
  WARNING 02: maximum depth increased for Node XXXX000507
  WARNING 02: maximum depth increased for Node XXXX000513
  WARNING 02: maximum depth increased for Node XXXX000520
  WARNING 02: maximum depth increased for Node XXXX000526
  WARNING 02: maximum depth increased for Node XXXX000530
  
  ****************
  Analysis Options
  ****************
  Flow Units ............... CMS
  Process Models:
    Rainfall/Runoff ........ YES
    RDII ................... NO
    Snowmelt ............... NO
    Groundwater ............ NO
    Flow Routing ........... YES
    Ponding Allowed ........ NO
    Water Quality .......... NO
  Infiltration Method ...... CURVE_NUMBER
  Flow Routing Method ...... DYNWAVE
  Surcharge Method ......... EXTRAN
  Starting Date ............ 07/08/2024 00:00:00
  Ending Date .............. 07/10/2024 23:55:00
  Antecedent Dry Days ...... 0.0
  Report Time Step ......... 00:15:00
  Wet Time Step ............ 00:05:00
  Dry Time Step ............ 01:00:00
  Routing Time Step ........ 20.00 sec
  Variable Time Step ....... YES
  Maximum Trials ........... 8
  Number of Threads ........ 1
  Head Tolerance ........... 0.001500 m
  
  
  *********************
  Rainfall File Summary
  *********************
  Station    First        Last         Recording   Periods    Periods    Periods
  ID         Date         Date         Frequency  w/Precip    Missing    Malfunc.
  -------------------------------------------------------------------------------
  P14        07/01/2024   08/31/2024       5 min     17856          0          0

  P11        07/01/2024   08/31/2024       5 min     17856          0          0

  
  
  **************************        Volume         Depth
  Runoff Quantity Continuity     hectare-m            mm
  **************************     ---------       -------
  Total Precipitation ......     32707.176        31.134
  Evaporation Loss .........         0.000         0.000
  Infiltration Loss ........      4460.340         4.246
  Surface Runoff ...........       766.847         0.730
  Final Storage ............     27481.019        26.159
  Continuity Error (%) .....        -0.003
  
  
  **************************        Volume        Volume
  Flow Routing Continuity        hectare-m      10^6 ltr
  **************************     ---------     ---------
  Dry Weather Inflow .......         0.000         0.000
  Wet Weather Inflow .......       765.854      7658.620
  Groundwater Inflow .......         0.000         0.000
  RDII Inflow ..............         0.000         0.000
  External Inflow ..........         9.103        91.035
  External Outflow .........       390.813      3908.172
  Flooding Loss ............       381.969      3819.733
  Evaporation Loss .........         0.000         0.000
  Exfiltration Loss ........         0.000         0.000
  Initial Stored Volume ....         0.000         0.000
  Final Stored Volume ......         1.350        13.505
  Continuity Error (%) .....         0.106
  
  
  *************************
  Highest Continuity Errors
  *************************
  Node A262 (93.99%)
  Node A098 (89.92%)
  Node A340 (81.93%)
  Node A310 (79.17%)
  Node E080 (73.85%)
  
  
  ***************************
  Time-Step Critical Elements
  ***************************
  Link A384.A383.57 (83.11%)
  Link XXXX000459.XXXX000456.468 (16.57%)
  
  
  ********************************
  Highest Flow Instability Indexes
  ********************************
  Link E088.E085.6 (104)
  Link A257.A260.284 (102)
  Link A157.XXXX000492.118 (102)
  Link W.1.1 (100)
  Link W.1.3 (98)
  
  
  *********************************
  Most Frequent Nonconverging Nodes
  *********************************
  Node OUT01 (21.36%)
  Node OUT02 (21.36%)
  Node OUT03 (21.36%)
  Node XXXX000527 (10.76%)
  Node XXXX000484 (3.90%)
  
  
  *************************
  Routing Time Step Summary
  *************************
  Minimum Time Step           :     0.48 sec
  Average Time Step           :     0.70 sec
  Maximum Time Step           :     4.87 sec
  % of Time in Steady State   :     0.00
  Average Iterations per Step :     5.20
  % of Steps Not Converging   :    21.36
  Time Step Frequencies       :
     20.000 -  9.564 sec      :     0.00 %
      9.564 -  4.573 sec      :     0.00 %
      4.573 -  2.187 sec      :     0.00 %
      2.187 -  1.046 sec      :    16.62 %
      1.046 -  0.500 sec      :    83.38 %
  
  
  ***************************
  Subcatchment Runoff Summary
  ***************************
  
  ------------------------------------------------------------------------------------------------------------------------------
                            Total      Total      Total      Total     Imperv       Perv      Total       Total     Peak  Runoff
                           Precip      Runon       Evap      Infil     Runoff     Runoff     Runoff      Runoff   Runoff   Coeff
  Subcatchment                 mm         mm         mm         mm         mm         mm         mm    10^6 ltr      CMS
  ------------------------------------------------------------------------------------------------------------------------------
  BRA004                    42.80       0.00       0.00       0.00       0.00       0.00       0.00        0.00     0.00   0.000
  BRA006                    42.80       0.00       0.00       0.00       0.00       0.00       0.00        0.00     0.00   0.000
  BRA009                    42.80       0.00       0.00       0.00       0.00       0.00       0.00        0.00     0.00   0.000
  BRA011                    42.80       0.00       0.00       0.00       0.00       0.00       0.00        0.00     0.00   0.000
  BRA013                    42.80       0.00       0.00       0.00       0.00       0.00       0.00        0.00     0.00   0.000
  BRA014                    42.80       0.00       0.00       0.00       0.00       0.00       0.00        0.00     0.00   0.000
  BRA015                    42.80       0.00       0.00       0.00       0.00       0.00       0.00        0.00     0.00   0.000
  BRA016                    42.80       0.00       0.00       0.00       0.00       0.00       0.00        0.00     0.00   0.000
  BRA018                    42.80       0.00       0.00       0.00       0.00       0.00       0.00        0.00     0.00   0.000
  BRA020                    42.80       0.00       0.00       0.00       0.00       0.00       0.00        0.00     0.00   0.000
  BRA027                    42.80       0.00       0.00       0.00       0.00       0.00       0.00        0.00     0.00   0.000
  BRA030                    42.80       0.00       0.00       0.00       0.00       0.00       0.00        0.00     0.00   0.000
  BRA031                    21.80       0.00       0.00       0.00       0.00       0.00       0.00        0.00     0.00   0.000
  BRA032                    42.80       0.00       0.00       0.00       0.00       0.00       0.00        0.00     0.00   0.000
  BRA033                    21.80       0.00       0.00       0.00       0.00       0.00       0.00        0.00     0.00   0.000
  BRA034                    42.80       0.00       0.00       0.00       0.00       0.00       0.00        0.00     0.00   0.000
  BRA035                    21.80       0.00       0.00       0.00       0.00       0.00       0.00        0.00     0.00   0.000
  BRA036                    21.80       0.00       0.00       0.00       0.00       0.00       0.00        0.00     0.00   0.000
  BRA037                    42.80       0.00       0.00       0.00       0.00       0.00       0.00        0.00     0.00   0.000
  BRA038                    42.80       0.00       0.00       0.00       0.00       0.00       0.00        0.00     0.00   0.000
  BRA039                    42.80       0.00       0.00       0.00       0.00       0.00       0.00        0.00     0.00   0.000
  BRA040                    21.80       0.00       0.00       0.00       0.00       0.00       0.00        0.00     0.00   0.000
  BRA041                    42.80       0.00       0.00       0.00       0.00       0.00       0.00        0.00     0.00   0.000
  BRA042                    42.80       0.00       0.00       0.00       0.00       0.00       0.00        0.00     0.00   0.000
  BRA043                    42.80       0.00       0.00       0.00       0.00       0.00       0.00        0.00     0.00   0.000
  BRA044                    42.80       0.00       0.00       0.00       0.00       0.00       0.00        0.00     0.00   0.000
  BRA045                    42.80       0.00       0.00       0.00       0.00       0.00       0.00        0.00     0.00   0.000
  BRA046                    42.80       0.00       0.00       0.00       0.00       0.00       0.00        0.00     0.00   0.000
  BRA047                    42.80       0.00       0.00       0.00       0.00       0.00       0.00        0.00     0.00   0.000
  BRA049                    42.80       0.00       0.00       0.00       0.00       0.00       0.00        0.00     0.00   0.000
  BRA050                    42.80       0.00       0.00       0.00       0.00       0.00       0.00        0.00     0.00   0.000
  BRA051                    42.80       0.00       0.00       0.00       0.00       0.00       0.00        0.00     0.00   0.000
  BRA052                    42.80       0.00       0.00       0.00       0.00       0.00       0.00        0.00     0.00   0.000
  BRA053                    42.80       0.00       0.00       0.00       0.00       0.00       0.00        0.00     0.00   0.000
  BRA054                    42.80       0.00       0.00       0.00       0.00       0.00       0.00        0.00     0.00   0.000
  BRA055                    42.80       0.00       0.00       0.00       0.00       0.00       0.00        0.00     0.00   0.000
  BRA056                    21.80       0.00       0.00       0.00       0.00       0.00       0.00        0.00     0.00   0.000
  BRA057                    42.80       0.00       0.00       0.00       0.00       0.00       0.00        0.00     0.00   0.000
  BRA058                    21.80       0.00       0.00       0.00       0.00       0.00       0.00        0.00     0.00   0.000
  BRA060                    42.80       0.00       0.00       0.00       0.00       0.00       0.00        0.00     0.00   0.000
  BRA061                    42.80       0.00       0.00       0.00       0.00       0.00       0.00        0.00     0.00   0.000
  BRA062                    42.80       0.00       0.00       0.00       0.00       0.00       0.00        0.00     0.00   0.000
  BRA063                    21.80       0.00       0.00       0.00       0.00       0.00       0.00        0.00     0.00   0.000
  BRA064                    21.80       0.00       0.00       0.00       0.00       0.00       0.00        0.00     0.00   0.000
  BRA065                    21.80       0.00       0.00       0.00       0.00       0.00       0.00        0.00     0.00   0.000
  BRA068                    42.80       0.00       0.00       0.00       0.00       0.00       0.00        0.00     0.00   0.000
  BRA069                    42.80       0.00       0.00       0.00       0.00       0.00       0.00        0.00     0.00   0.000
  BRA070                    42.80       0.00       0.00       0.00       0.00       0.00       0.00        0.00     0.00   0.000
  BRA071                    42.80       0.00       0.00       0.00       0.00       0.00       0.00        0.00     0.00   0.000
  BRA072                    42.80       0.00       0.00       0.00       0.00       0.00       0.00        0.00     0.00   0.000
  BRA073                    42.80       0.00       0.00       0.00       0.00       0.00       0.00        0.00     0.00   0.000
  BRA074                    42.80       0.00       0.00       0.00       0.00       0.00       0.00        0.00     0.00   0.000
  BRA075                    42.80       0.00       0.00       0.00       0.00       0.00       0.00        0.00     0.00   0.000
  BRA076                    42.80       0.00       0.00       0.00       0.00       0.00       0.00        0.00     0.00   0.000
  BRA077                    42.80       0.00       0.00       0.00       0.00       0.00       0.00        0.00     0.00   0.000
  BRA078                    42.80       0.00       0.00       0.00       0.00       0.00       0.00        0.00     0.00   0.000
  BRA079                    42.80       0.00       0.00       0.00       0.00       0.00       0.00        0.00     0.00   0.000
  BRA081                    42.80       0.00       0.00       0.00       0.00       0.00       0.00        0.00     0.00   0.000
  BRA082                    42.80       0.00       0.00       0.00       0.00       0.00       0.00        0.00     0.00   0.000
  BRA083                    42.80       0.00       0.00       0.00       0.00       0.00       0.00        0.00     0.00   0.000
  BRA086                    42.80       0.00       0.00       0.00       0.00       0.00       0.00        0.00     0.00   0.000
  BRA087                    42.80       0.00       0.00       0.00       0.00       0.00       0.00        0.00     0.00   0.000
  BRA088                    42.80       0.00       0.00       0.00       0.00       0.00       0.00        0.00     0.00   0.000
  BRA089                    42.80       0.00       0.00       0.00       0.00       0.00       0.00        0.00     0.00   0.000
  BRA090                    42.80       0.00       0.00       0.00       0.00       0.00       0.00        0.00     0.00   0.000
  BRA091                    42.80       0.00       0.00       0.00       0.00       0.00       0.00        0.00     0.00   0.000
  BRA092                    42.80       0.00       0.00       0.00       0.00       0.00       0.00        0.00     0.00   0.000
  BRA093                    42.80       0.00       0.00       0.00       0.00       0.00       0.00        0.00     0.00   0.000
  BRA094                    42.80       0.00       0.00       0.00       0.00       0.00       0.00        0.00     0.00   0.000
  BRA095                    42.80       0.00       0.00       0.00       0.00       0.00       0.00        0.00     0.00   0.000
  BRA097                    42.80       0.00       0.00       0.00       0.00       0.00       0.00        0.00     0.00   0.000
  BRA099                    42.80       0.00       0.00       0.00       0.00       0.00       0.00        0.00     0.00   0.000
  BRA102                    42.80       0.00       0.00       0.00       0.00       0.00       0.00        0.00     0.00   0.000
  BRA104                    42.80       0.00       0.00       0.00       0.00       0.00       0.00        0.00     0.00   0.000
  BRA106                    21.80       0.00       0.00       0.00       0.00       0.00       0.00        0.00     0.00   0.000
  BRA107                    42.80       0.00       0.00       0.00       0.00       0.00       0.00        0.00     0.00   0.000
  BRA108                    42.80       0.00       0.00       0.00       0.00       0.00       0.00        0.00     0.00   0.000
  BRA109                    21.80       0.00       0.00       0.00       0.00       0.00       0.00        0.00     0.00   0.000
  BRA110                    21.80       0.00       0.00       0.00       0.00       0.00       0.00        0.00     0.00   0.000
  BRA111                    42.80       0.00       0.00       0.00       0.00       0.00       0.00        0.00     0.00   0.000
  BRA112                    42.80       0.00       0.00       0.00       0.00       0.00       0.00        0.00     0.00   0.000
  BRA113                    42.80       0.00       0.00       0.00       0.00       0.00       0.00        0.00     0.00   0.000
  BRA114                    42.80       0.00       0.00       0.00       0.00       0.00       0.00        0.00     0.00   0.000
  BRA115                    42.80       0.00       0.00       0.00       0.00       0.00       0.00        0.00     0.00   0.000
  BRA116                    42.80       0.00       0.00       0.00       0.00       0.00       0.00        0.00     0.00   0.000
  BRA117                    42.80       0.00       0.00       0.00       0.00       0.00       0.00        0.00     0.00   0.000
  BRA118                    42.80       0.00       0.00       0.00       0.00       0.00       0.00        0.00     0.00   0.000
  BRA119                    42.80       0.00       0.00       0.00       0.00       0.00       0.00        0.00     0.00   0.000
  BRA120                    42.80       0.00       0.00       0.00       0.00       0.00       0.00        0.00     0.00   0.000
  BRA121                    42.80       0.00       0.00       0.00       0.00       0.00       0.00        0.00     0.00   0.000
  BRA122                    42.80       0.00       0.00       0.00       0.00       0.00       0.00        0.00     0.00   0.000
  BRA123                    42.80       0.00       0.00       0.00       0.00       0.00       0.00        0.00     0.00   0.000
  BRA124                    42.80       0.00       0.00       0.00       0.00       0.00       0.00        0.00     0.00   0.000
  BRA125                    42.80       0.00       0.00       0.00       0.00       0.00       0.00        0.00     0.00   0.000
  BRA127                    42.80       0.00       0.00       0.00       0.00       0.00       0.00        0.00     0.00   0.000
  BRA131                    42.80       0.00       0.00       0.00       0.00       0.00       0.00        0.00     0.00   0.000
  BRA133                    42.80       0.00       0.00       0.00       0.00       0.00       0.00        0.00     0.00   0.000
  BRA134                    42.80       0.00       0.00       0.00       0.00       0.00       0.00        0.00     0.00   0.000
  BRA136                    42.80       0.00       0.00       0.00       0.00       0.00       0.00        0.00     0.00   0.000
  BRA137                    42.80       0.00       0.00       0.00       0.00       0.00       0.00        0.00     0.00   0.000
  BRA138                    42.80       0.00       0.00       0.00       0.00       0.00       0.00        0.00     0.00   0.000
  BRA140                    42.80       0.00       0.00       0.00       0.00       0.00       0.00        0.00     0.00   0.000
  BRA141                    42.80       0.00       0.00       0.00       0.00       0.00       0.00        0.00     0.00   0.000
  BRA143                    42.80       0.00       0.00       0.00       0.00       0.00       0.00        0.00     0.00   0.000
  BRA145                    42.80       0.00       0.00       0.00       0.00       0.00       0.00        0.00     0.00   0.000
  BRA147                    42.80       0.00       0.00       0.00       0.00       0.00       0.00        0.00     0.00   0.000
  BRA155                    42.80       0.00       0.00       0.00       0.00       0.00       0.00        0.00     0.00   0.000
  BRA156                    42.80       0.00       0.00       0.00       0.00       0.00       0.00        0.00     0.00   0.000
  BRA157                    42.80       0.00       0.00       0.00       0.00       0.00       0.00        0.00     0.00   0.000
  BRA159                    42.80       0.00       0.00       0.00       0.00       0.00       0.00        0.00     0.00   0.000
  BRA160                    42.80       0.00       0.00       0.00       0.00       0.00       0.00        0.00     0.00   0.000
  BRA165                    42.80       0.00       0.00       0.00       0.00       0.00       0.00        0.00     0.00   0.000
  BRA166                    42.80       0.00       0.00       0.00       0.00       0.00       0.00        0.00     0.00   0.000
  BRA167                    42.80       0.00       0.00       0.00       0.00       0.00       0.00        0.00     0.00   0.000
  BRA168                    42.80       0.00       0.00       0.00       0.00       0.00       0.00        0.00     0.00   0.000
  BRA169                    42.80       0.00       0.00       0.00       0.00       0.00       0.00        0.00     0.00   0.000
  BRA170                    42.80       0.00       0.00       0.00       0.00       0.00       0.00        0.00     0.00   0.000
  BRA171                    42.80       0.00       0.00       0.00       0.00       0.00       0.00        0.00     0.00   0.000
  BRA172                    42.80       0.00       0.00       0.00       0.00       0.00       0.00        0.00     0.00   0.000
  BRA173                    42.80       0.00       0.00       0.00       0.00       0.00       0.00        0.00     0.00   0.000
  BRA174                    42.80       0.00       0.00       0.00       0.00       0.00       0.00        0.00     0.00   0.000
  BRA175                    42.80       0.00       0.00       0.00       0.00       0.00       0.00        0.00     0.00   0.000
  BRA177                    42.80       0.00       0.00       0.00       0.00       0.00       0.00        0.00     0.00   0.000
  BRA178                    42.80       0.00       0.00       0.00       0.00       0.00       0.00        0.00     0.00   0.000
  BRA179                    42.80       0.00       0.00       0.00       0.00       0.00       0.00        0.00     0.00   0.000
  BRA180                    42.80       0.00       0.00       0.00       0.00       0.00       0.00        0.00     0.00   0.000
  BRA181                    42.80       0.00       0.00       0.00       0.00       0.00       0.00        0.00     0.00   0.000
  BRA182                    21.80       0.00       0.00       0.00       0.00       0.00       0.00        0.00     0.00   0.000
  BRA183                    21.80       0.00       0.00       0.00       0.00       0.00       0.00        0.00     0.00   0.000
  BRA184                    21.80       0.00       0.00       0.00       0.00       0.00       0.00        0.00     0.00   0.000
  BRA185                    42.80       0.00       0.00       0.00       0.00       0.00       0.00        0.00     0.00   0.000
  BRA186                    21.80       0.00       0.00       0.00       0.00       0.00       0.00        0.00     0.00   0.000
  BRA187                    42.80       0.00       0.00       0.00       0.00       0.00       0.00        0.00     0.00   0.000
  BRA188                    42.80       0.00       0.00       0.00       0.00       0.00       0.00        0.00     0.00   0.000
  BRA189                    21.80       0.00       0.00       0.00       0.00       0.00       0.00        0.00     0.00   0.000
  BRA190                    42.80       0.00       0.00       0.00       0.00       0.00       0.00        0.00     0.00   0.000
  BRA191                    21.80       0.00       0.00       0.00       0.00       0.00       0.00        0.00     0.00   0.000
  BRA192                    21.80       0.00       0.00       0.00       0.00       0.00       0.00        0.00     0.00   0.000
  BRA193                    42.80       0.00       0.00       0.00       0.00       0.00       0.00        0.00     0.00   0.000
  BRA194                    21.80       0.00       0.00       0.00       0.00       0.00       0.00        0.00     0.00   0.000
  BRA195                    42.80       0.00       0.00       0.00       0.00       0.00       0.00        0.00     0.00   0.000
  BRA196                    21.80       0.00       0.00       0.00       0.00       0.00       0.00        0.00     0.00   0.000
  BRA197                    42.80       0.00       0.00       0.00       0.00       0.00       0.00        0.00     0.00   0.000
  BRA198                    21.80       0.00       0.00       0.00       0.00       0.00       0.00        0.00     0.00   0.000
  BRA199                    42.80       0.00       0.00       0.00       0.00       0.00       0.00        0.00     0.00   0.000
  BRA200                    42.80       0.00       0.00       0.00       0.00       0.00       0.00        0.00     0.00   0.000
  BRA201                    42.80       0.00       0.00       0.00       0.00       0.00       0.00        0.00     0.00   0.000
  BRA202                    42.80       0.00       0.00       0.00       0.00       0.00       0.00        0.00     0.00   0.000
  BRA203                    42.80       0.00       0.00       0.00       0.00       0.00       0.00        0.00     0.00   0.000
  BRA204                    42.80       0.00       0.00       0.00       0.00       0.00       0.00        0.00     0.00   0.000
  BRA205                    42.80       0.00       0.00       0.00       0.00       0.00       0.00        0.00     0.00   0.000
  BRA206                    42.80       0.00       0.00       0.00       0.00       0.00       0.00        0.00     0.00   0.000
  BRA210                    42.80       0.00       0.00       0.00       0.00       0.00       0.00        0.00     0.00   0.000
  BRA211                    42.80       0.00       0.00       0.00       0.00       0.00       0.00        0.00     0.00   0.000
  BRA212                    42.80       0.00       0.00       0.00       0.00       0.00       0.00        0.00     0.00   0.000
  BRA214                    42.80       0.00       0.00       0.00       0.00       0.00       0.00        0.00     0.00   0.000
  BRA215                    21.80       0.00       0.00       0.00       0.00       0.00       0.00        0.00     0.00   0.000
  BRA216                    42.80       0.00       0.00       0.00       0.00       0.00       0.00        0.00     0.00   0.000
  BRA217                    21.80       0.00       0.00       0.00       0.00       0.00       0.00        0.00     0.00   0.000
  BRA219                    21.80       0.00       0.00       0.00       0.00       0.00       0.00        0.00     0.00   0.000
  BRA221                    21.80       0.00       0.00       0.00       0.00       0.00       0.00        0.00     0.00   0.000
  BRA223                    21.80       0.00       0.00       0.00       0.00       0.00       0.00        0.00     0.00   0.000
  BRA225                    21.80       0.00       0.00       0.00       0.00       0.00       0.00        0.00     0.00   0.000
  BRA228                    21.80       0.00       0.00       0.00       0.00       0.00       0.00        0.00     0.00   0.000
  BRA229                    21.80       0.00       0.00       0.00       0.00       0.00       0.00        0.00     0.00   0.000
  BRA231                    42.80       0.00       0.00       0.00       0.00       0.00       0.00        0.00     0.00   0.000
  BRA232                    42.80       0.00       0.00       0.00       0.00       0.00       0.00        0.00     0.00   0.000
  BRA234                    42.80       0.00       0.00       0.00       0.00       0.00       0.00        0.00     0.00   0.000
  BRA236                    42.80       0.00       0.00       0.00       0.00       0.00       0.00        0.00     0.00   0.000
  BRA242                    42.80       0.00       0.00       0.00       0.00       0.00       0.00        0.00     0.00   0.000
  BRA243                    42.80       0.00       0.00       0.00       0.00       0.00       0.00        0.00     0.00   0.000
  BRA244                    42.80       0.00       0.00       0.00       0.00       0.00       0.00        0.00     0.00   0.000
  BRA245                    42.80       0.00       0.00       0.00       0.00       0.00       0.00        0.00     0.00   0.000
  BRA247                    42.80       0.00       0.00       0.00       0.00       0.00       0.00        0.00     0.00   0.000
  BRA248                    21.80       0.00       0.00       0.00       0.00       0.00       0.00        0.00     0.00   0.000
  BRA250                    42.80       0.00       0.00       0.00       0.00       0.00       0.00        0.00     0.00   0.000
  BRA251                    21.80       0.00       0.00       0.00       0.00       0.00       0.00        0.00     0.00   0.000
  BRA253                    21.80       0.00       0.00       0.00       0.00       0.00       0.00        0.00     0.00   0.000
  BRA254                    21.80       0.00       0.00       0.00       0.00       0.00       0.00        0.00     0.00   0.000
  BRA256                    21.80       0.00       0.00       0.00       0.00       0.00       0.00        0.00     0.00   0.000
  BRA257                    42.80       0.00       0.00       0.00       0.00       0.00       0.00        0.00     0.00   0.000
  BRA260                    21.80       0.00       0.00       0.00       0.00       0.00       0.00        0.00     0.00   0.000
  BRA262                    21.80       0.00       0.00       0.00       0.00       0.00       0.00        0.00     0.00   0.000
  BRA263                    21.80       0.00       0.00       0.00       0.00       0.00       0.00        0.00     0.00   0.000
  BRA264                    21.80       0.00       0.00       0.00       0.00       0.00       0.00        0.00     0.00   0.000
  BRA273                    42.80       0.00       0.00       0.00       0.00       0.00       0.00        0.00     0.00   0.000
  BRA274                    42.80       0.00       0.00       0.00       0.00       0.00       0.00        0.00     0.00   0.000
  BRA276                    21.80       0.00       0.00       0.00       0.00       0.00       0.00        0.00     0.00   0.000
  BRA277                    21.80       0.00       0.00       0.00       0.00       0.00       0.00        0.00     0.00   0.000
  BRA278                    21.80       0.00       0.00       0.00       0.00       0.00       0.00        0.00     0.00   0.000
  BRA279                    21.80       0.00       0.00       0.00       0.00       0.00       0.00        0.00     0.00   0.000
  BRA280                    42.80       0.00       0.00       0.00       0.00       0.00       0.00        0.00     0.00   0.000
  BRA281                    42.80       0.00       0.00       0.00       0.00       0.00       0.00        0.00     0.00   0.000
  BRA282                    21.80       0.00       0.00       0.00       0.00       0.00       0.00        0.00     0.00   0.000
  BRA283                    42.80       0.00       0.00       0.00       0.00       0.00       0.00        0.00     0.00   0.000
  BRA284                    42.80       0.00       0.00       0.00       0.00       0.00       0.00        0.00     0.00   0.000
  BRA285                    42.80       0.00       0.00       0.00       0.00       0.00       0.00        0.00     0.00   0.000
  BRA286                    42.80       0.00       0.00       0.00       0.00       0.00       0.00        0.00     0.00   0.000
  BRA287                    42.80       0.00       0.00       0.00       0.00       0.00       0.00        0.00     0.00   0.000
  BRA289                    21.80       0.00       0.00       0.00       0.00       0.00       0.00        0.00     0.00   0.000
  BRA290                    42.80       0.00       0.00       0.00       0.00       0.00       0.00        0.00     0.00   0.000
  BRA293                    21.80       0.00       0.00       0.00       0.00       0.00       0.00        0.00     0.00   0.000
  BRA295                    42.80       0.00       0.00       0.00       0.00       0.00       0.00        0.00     0.00   0.000
  BRA296                    21.80       0.00       0.00       0.00       0.00       0.00       0.00        0.00     0.00   0.000
  BRA298                    21.80       0.00       0.00       0.00       0.00       0.00       0.00        0.00     0.00   0.000
  BRA300                    21.80       0.00       0.00       0.00       0.00       0.00       0.00        0.00     0.00   0.000
  BRA306                    42.80       0.00       0.00       0.00       0.00       0.00       0.00        0.00     0.00   0.000
  BRA307                    42.80       0.00       0.00       0.00       0.00       0.00       0.00        0.00     0.00   0.000
  BRA309                    42.80       0.00       0.00       0.00       0.00       0.00       0.00        0.00     0.00   0.000
  BRA310                    42.80       0.00       0.00       0.00       0.00       0.00       0.00        0.00     0.00   0.000
  BRA315                    42.80       0.00       0.00       0.00       0.00       0.00       0.00        0.00     0.00   0.000
  BRA316                    42.80       0.00       0.00       0.00       0.00       0.00       0.00        0.00     0.00   0.000
  BRA317                    42.80       0.00       0.00       0.00       0.00       0.00       0.00        0.00     0.00   0.000
  BRA319                    42.80       0.00       0.00       0.00       0.00       0.00       0.00        0.00     0.00   0.000
  BRA324                    42.80       0.00       0.00       0.00       0.00       0.00       0.00        0.00     0.00   0.000
  BRA326                    42.80       0.00       0.00       0.00       0.00       0.00       0.00        0.00     0.00   0.000
  BRA327                    42.80       0.00       0.00       0.00       0.00       0.00       0.00        0.00     0.00   0.000
  BRA335                    42.80       0.00       0.00       0.00       0.00       0.00       0.00        0.00     0.00   0.000
  BRA336                    42.80       0.00       0.00       0.00       0.00       0.00       0.00        0.00     0.00   0.000
  BRA337                    42.80       0.00       0.00       0.00       0.00       0.00       0.00        0.00     0.00   0.000
  BRA338                    42.80       0.00       0.00       0.00       0.00       0.00       0.00        0.00     0.00   0.000
  BRA339                    42.80       0.00       0.00       0.00       0.00       0.00       0.00        0.00     0.00   0.000
  BRA340                    42.80       0.00       0.00       0.00       0.00       0.00       0.00        0.00     0.00   0.000
  BRA341                    42.80       0.00       0.00       0.00       0.00       0.00       0.00        0.00     0.00   0.000
  BRA343                    42.80       0.00       0.00       0.00       0.00       0.00       0.00        0.00     0.00   0.000
  BRA344                    42.80       0.00       0.00       0.00       0.00       0.00       0.00        0.00     0.00   0.000
  BRA345                    42.80       0.00       0.00       0.00       0.00       0.00       0.00        0.00     0.00   0.000
  BRA346                    42.80       0.00       0.00       0.00       0.00       0.00       0.00        0.00     0.00   0.000
  BRA348                    42.80       0.00       0.00       0.00       0.00       0.00       0.00        0.00     0.00   0.000
  BRA350                    42.80       0.00       0.00       0.00       0.00       0.00       0.00        0.00     0.00   0.000
  BRA351                    42.80       0.00       0.00       0.00       0.00       0.00       0.00        0.00     0.00   0.000
  BRA352                    42.80       0.00       0.00       0.00       0.00       0.00       0.00        0.00     0.00   0.000
  BRA353                    42.80       0.00       0.00       0.00       0.00       0.00       0.00        0.00     0.00   0.000
  BRA362                    42.80       0.00       0.00       0.00       0.00       0.00       0.00        0.00     0.00   0.000
  BRA363                    42.80       0.00       0.00       0.00       0.00       0.00       0.00        0.00     0.00   0.000
  BRA364                    42.80       0.00       0.00       0.00       0.00       0.00       0.00        0.00     0.00   0.000
  BRA365                    42.80       0.00       0.00       0.00       0.00       0.00       0.00        0.00     0.00   0.000
  BRA366                    42.80       0.00       0.00       0.00       0.00       0.00       0.00        0.00     0.00   0.000
  BRA368                    42.80       0.00       0.00       0.00       0.00       0.00       0.00        0.00     0.00   0.000
  BRA369                    42.80       0.00       0.00       0.00       0.00       0.00       0.00        0.00     0.00   0.000
  BRA371                    42.80       0.00       0.00       0.00       0.00       0.00       0.00        0.00     0.00   0.000
  BRA372                    42.80       0.00       0.00       0.00       0.00       0.00       0.00        0.00     0.00   0.000
  BRA373                    21.80       0.00       0.00       0.00       0.00       0.00       0.00        0.00     0.00   0.000
  BRA376                    42.80       0.00       0.00       0.00       0.00       0.00       0.00        0.00     0.00   0.000
  BRA377                    21.80       0.00       0.00       0.00       0.00       0.00       0.00        0.00     0.00   0.000
  BRA379                    42.80       0.00       0.00       0.00       0.00       0.00       0.00        0.00     0.00   0.000
  BRA380                    42.80       0.00       0.00       0.00       0.00       0.00       0.00        0.00     0.00   0.000
  BRA381                    42.80       0.00       0.00       0.00       0.00       0.00       0.00        0.00     0.00   0.000
  BRA382                    42.80       0.00       0.00       0.00       0.00       0.00       0.00        0.00     0.00   0.000
  BRA383                    21.80       0.00       0.00       0.00       0.00       0.00       0.00        0.00     0.00   0.000
  BRA384                    42.80       0.00       0.00       0.00       0.00       0.00       0.00        0.00     0.00   0.000
  BRA385                    42.80       0.00       0.00       0.00       0.00       0.00       0.00        0.00     0.00   0.000
  BRA386                    21.80       0.00       0.00       0.00       0.00       0.00       0.00        0.00     0.00   0.000
  BRA387                    42.80       0.00       0.00       0.00       0.00       0.00       0.00        0.00     0.00   0.000
  BRA388                    21.80       0.00       0.00       0.00       0.00       0.00       0.00        0.00     0.00   0.000
  BRA389                    21.80       0.00       0.00       0.00       0.00       0.00       0.00        0.00     0.00   0.000
  BRA390                    21.80       0.00       0.00       0.00       0.00       0.00       0.00        0.00     0.00   0.000
  BRA391                    21.80       0.00       0.00       0.00       0.00       0.00       0.00        0.00     0.00   0.000
  BRA393                    42.80       0.00       0.00       0.00       0.00       0.00       0.00        0.00     0.00   0.000
  BRA395                    42.80       0.00       0.00       0.00       0.00       0.00       0.00        0.00     0.00   0.000
  BRA398                    42.80       0.00       0.00       0.00       0.00       0.00       0.00        0.00     0.00   0.000
  BRA406                    42.80       0.00       0.00       0.00       0.00       0.00       0.00        0.00     0.00   0.000
  BRA409                    42.80       0.00       0.00       0.00       0.00       0.00       0.00        0.00     0.00   0.000
  BRA410                    42.80       0.00       0.00       0.00       0.00       0.00       0.00        0.00     0.00   0.000
  BRA411                    42.80       0.00       0.00       0.00       0.00       0.00       0.00        0.00     0.00   0.000
  BRA412                    42.80       0.00       0.00       0.00       0.00       0.00       0.00        0.00     0.00   0.000
  BRA414                    42.80       0.00       0.00       0.00       0.00       0.00       0.00        0.00     0.00   0.000
  BRA424                    42.80       0.00       0.00       0.00       0.00       0.00       0.00        0.00     0.00   0.000
  BRE005                    42.80       0.00       0.00       0.00       0.00       0.00       0.00        0.00     0.00   0.000
  BRE007                    42.80       0.00       0.00       0.00       0.00       0.00       0.00        0.00     0.00   0.000
  BRE008                    42.80       0.00       0.00       0.00       0.00       0.00       0.00        0.00     0.00   0.000
  BRE010                    42.80       0.00       0.00       0.00       0.00       0.00       0.00        0.00     0.00   0.000
  BRE012                    42.80       0.00       0.00       0.00       0.00       0.00       0.00        0.00     0.00   0.000
  BRE019                    42.80       0.00       0.00       0.00       0.00       0.00       0.00        0.00     0.00   0.000
  BRE021                    42.80       0.00       0.00       0.00       0.00       0.00       0.00        0.00     0.00   0.000
  BRE024                    42.80       0.00       0.00       0.00       0.00       0.00       0.00        0.00     0.00   0.000
  BRE026                    42.80       0.00       0.00       0.00       0.00       0.00       0.00        0.00     0.00   0.000
  BRE029                    42.80       0.00       0.00       0.00       0.00       0.00       0.00        0.00     0.00   0.000
  BRE048                    42.80       0.00       0.00       0.00       0.00       0.00       0.00        0.00     0.00   0.000
  BRE080                    42.80       0.00       0.00       0.00       0.00       0.00       0.00        0.00     0.00   0.000
  BRE084                    42.80       0.00       0.00       0.00       0.00       0.00       0.00        0.00     0.00   0.000
  BRE085                    42.80       0.00       0.00       0.00       0.00       0.00       0.00        0.00     0.00   0.000
  BRE096                    42.80       0.00       0.00       0.00       0.00       0.00       0.00        0.00     0.00   0.000
  BRE098                    42.80       0.00       0.00       0.00       0.00       0.00       0.00        0.00     0.00   0.000
  BRE100                    42.80       0.00       0.00       0.00       0.00       0.00       0.00        0.00     0.00   0.000
  BRE101                    42.80       0.00       0.00       0.00       0.00       0.00       0.00        0.00     0.00   0.000
  BRE103                    42.80       0.00       0.00       0.00       0.00       0.00       0.00        0.00     0.00   0.000
  BRE105                    42.80       0.00       0.00       0.00       0.00       0.00       0.00        0.00     0.00   0.000
  BRE126                    42.80       0.00       0.00       0.00       0.00       0.00       0.00        0.00     0.00   0.000
  BRE128                    42.80       0.00       0.00       0.00       0.00       0.00       0.00        0.00     0.00   0.000
  BRE129                    42.80       0.00       0.00       0.00       0.00       0.00       0.00        0.00     0.00   0.000
  BRE130                    42.80       0.00       0.00       0.00       0.00       0.00       0.00        0.00     0.00   0.000
  BRE132                    42.80       0.00       0.00       0.00       0.00       0.00       0.00        0.00     0.00   0.000
  BRE135                    42.80       0.00       0.00       0.00       0.00       0.00       0.00        0.00     0.00   0.000
  BRE139                    42.80       0.00       0.00       0.00       0.00       0.00       0.00        0.00     0.00   0.000
  BRE142                    42.80       0.00       0.00       0.00       0.00       0.00       0.00        0.00     0.00   0.000
  BRE144                    42.80       0.00       0.00       0.00       0.00       0.00       0.00        0.00     0.00   0.000
  BRE146                    42.80       0.00       0.00       0.00       0.00       0.00       0.00        0.00     0.00   0.000
  BRE148                    42.80       0.00       0.00       0.00       0.00       0.00       0.00        0.00     0.00   0.000
  BRE149                    42.80       0.00       0.00       0.00       0.00       0.00       0.00        0.00     0.00   0.000
  BRE150                    42.80       0.00       0.00       0.00       0.00       0.00       0.00        0.00     0.00   0.000
  BRE152                    42.80       0.00       0.00       0.00       0.00       0.00       0.00        0.00     0.00   0.000
  BRE153                    42.80       0.00       0.00       0.00       0.00       0.00       0.00        0.00     0.00   0.000
  BRE154                    42.80       0.00       0.00       0.00       0.00       0.00       0.00        0.00     0.00   0.000
  BRE158                    42.80       0.00       0.00       0.00       0.00       0.00       0.00        0.00     0.00   0.000
  BRE161                    42.80       0.00       0.00       0.00       0.00       0.00       0.00        0.00     0.00   0.000
  BRE162                    42.80       0.00       0.00       0.00       0.00       0.00       0.00        0.00     0.00   0.000
  BRE163                    42.80       0.00       0.00       0.00       0.00       0.00       0.00        0.00     0.00   0.000
  BRE164                    42.80       0.00       0.00       0.00       0.00       0.00       0.00        0.00     0.00   0.000
  BRE176                    42.80       0.00       0.00       0.00       0.00       0.00       0.00        0.00     0.00   0.000
  BRE207                    42.80       0.00       0.00       0.00       0.00       0.00       0.00        0.00     0.00   0.000
  BRE208                    42.80       0.00       0.00       0.00       0.00       0.00       0.00        0.00     0.00   0.000
  BRE209                    42.80       0.00       0.00       0.00       0.00       0.00       0.00        0.00     0.00   0.000
  BRE213                    42.80       0.00       0.00       0.00       0.00       0.00       0.00        0.00     0.00   0.000
  BRE218                    42.80       0.00       0.00       0.00       0.00       0.00       0.00        0.00     0.00   0.000
  BRE220                    42.80       0.00       0.00       0.00       0.00       0.00       0.00        0.00     0.00   0.000
  BRE222                    42.80       0.00       0.00       0.00       0.00       0.00       0.00        0.00     0.00   0.000
  BRE224                    42.80       0.00       0.00       0.00       0.00       0.00       0.00        0.00     0.00   0.000
  BRE226                    42.80       0.00       0.00       0.00       0.00       0.00       0.00        0.00     0.00   0.000
  BRE230                    42.80       0.00       0.00       0.00       0.00       0.00       0.00        0.00     0.00   0.000
  BRE235                    42.80       0.00       0.00       0.00       0.00       0.00       0.00        0.00     0.00   0.000
  BRE238                    42.80       0.00       0.00       0.00       0.00       0.00       0.00        0.00     0.00   0.000
  BRE240                    42.80       0.00       0.00       0.00       0.00       0.00       0.00        0.00     0.00   0.000
  BRE246                    42.80       0.00       0.00       0.00       0.00       0.00       0.00        0.00     0.00   0.000
  BRE249                    42.80       0.00       0.00       0.00       0.00       0.00       0.00        0.00     0.00   0.000
  BRE252                    42.80       0.00       0.00       0.00       0.00       0.00       0.00        0.00     0.00   0.000
  BRE255                    42.80       0.00       0.00       0.00       0.00       0.00       0.00        0.00     0.00   0.000
  BRE258                    42.80       0.00       0.00       0.00       0.00       0.00       0.00        0.00     0.00   0.000
  BRE259                    42.80       0.00       0.00       0.00       0.00       0.00       0.00        0.00     0.00   0.000
  BRE265                    42.80       0.00       0.00       0.00       0.00       0.00       0.00        0.00     0.00   0.000
  BRE266                    42.80       0.00       0.00       0.00       0.00       0.00       0.00        0.00     0.00   0.000
  BRE270                    42.80       0.00       0.00       0.00       0.00       0.00       0.00        0.00     0.00   0.000
  BRE272                    42.80       0.00       0.00       0.00       0.00       0.00       0.00        0.00     0.00   0.000
  BRE275                    42.80       0.00       0.00       0.00       0.00       0.00       0.00        0.00     0.00   0.000
  BRE288                    42.80       0.00       0.00       0.00       0.00       0.00       0.00        0.00     0.00   0.000
  BRE291                    42.80       0.00       0.00       0.00       0.00       0.00       0.00        0.00     0.00   0.000
  BRE292                    42.80       0.00       0.00       0.00       0.00       0.00       0.00        0.00     0.00   0.000
  BRE294                    42.80       0.00       0.00       0.00       0.00       0.00       0.00        0.00     0.00   0.000
  BRE297                    42.80       0.00       0.00       0.00       0.00       0.00       0.00        0.00     0.00   0.000
  BRE301                    42.80       0.00       0.00       0.00       0.00       0.00       0.00        0.00     0.00   0.000
  BRE302                    42.80       0.00       0.00       0.00       0.00       0.00       0.00        0.00     0.00   0.000
  BRE303                    42.80       0.00       0.00       0.00       0.00       0.00       0.00        0.00     0.00   0.000
  BRE304                    42.80       0.00       0.00       0.00       0.00       0.00       0.00        0.00     0.00   0.000
  BRE305                    42.80       0.00       0.00       0.00       0.00       0.00       0.00        0.00     0.00   0.000
  BRE308                    42.80       0.00       0.00       0.00       0.00       0.00       0.00        0.00     0.00   0.000
  BRE311                    42.80       0.00       0.00       0.00       0.00       0.00       0.00        0.00     0.00   0.000
  BRE312                    42.80       0.00       0.00       0.00       0.00       0.00       0.00        0.00     0.00   0.000
  BRE313                    42.80       0.00       0.00       0.00       0.00       0.00       0.00        0.00     0.00   0.000
  BRE314                    42.80       0.00       0.00       0.00       0.00       0.00       0.00        0.00     0.00   0.000
  BRE320                    42.80       0.00       0.00       0.00       0.00       0.00       0.00        0.00     0.00   0.000
  BRE322                    42.80       0.00       0.00       0.00       0.00       0.00       0.00        0.00     0.00   0.000
  BRE325                    42.80       0.00       0.00       0.00       0.00       0.00       0.00        0.00     0.00   0.000
  BRE328                    42.80       0.00       0.00       0.00       0.00       0.00       0.00        0.00     0.00   0.000
  BRE329                    42.80       0.00       0.00       0.00       0.00       0.00       0.00        0.00     0.00   0.000
  BRE331                    42.80       0.00       0.00       0.00       0.00       0.00       0.00        0.00     0.00   0.000
  BRE334                    42.80       0.00       0.00       0.00       0.00       0.00       0.00        0.00     0.00   0.000
  BRE342                    42.80       0.00       0.00       0.00       0.00       0.00       0.00        0.00     0.00   0.000
  BRE347                    42.80       0.00       0.00       0.00       0.00       0.00       0.00        0.00     0.00   0.000
  BRE349                    42.80       0.00       0.00       0.00       0.00       0.00       0.00        0.00     0.00   0.000
  BRE354                    42.80       0.00       0.00       0.00       0.00       0.00       0.00        0.00     0.00   0.000
  BRE355                    42.80       0.00       0.00       0.00       0.00       0.00       0.00        0.00     0.00   0.000
  BRE356                    42.80       0.00       0.00       0.00       0.00       0.00       0.00        0.00     0.00   0.000
  BRE357                    42.80       0.00       0.00       0.00       0.00       0.00       0.00        0.00     0.00   0.000
  BRE360                    42.80       0.00       0.00       0.00       0.00       0.00       0.00        0.00     0.00   0.000
  BRE361                    42.80       0.00       0.00       0.00       0.00       0.00       0.00        0.00     0.00   0.000
  BRE367                    42.80       0.00       0.00       0.00       0.00       0.00       0.00        0.00     0.00   0.000
  BRE370                    42.80       0.00       0.00       0.00       0.00       0.00       0.00        0.00     0.00   0.000
  BRE374                    42.80       0.00       0.00       0.00       0.00       0.00       0.00        0.00     0.00   0.000
  BRE375                    42.80       0.00       0.00       0.00       0.00       0.00       0.00        0.00     0.00   0.000
  BRE378                    42.80       0.00       0.00       0.00       0.00       0.00       0.00        0.00     0.00   0.000
  BRE392                    42.80       0.00       0.00       0.00       0.00       0.00       0.00        0.00     0.00   0.000
  BRE394                    42.80       0.00       0.00       0.00       0.00       0.00       0.00        0.00     0.00   0.000
  BRE396                    42.80       0.00       0.00       0.00       0.00       0.00       0.00        0.00     0.00   0.000
  BRE397                    42.80       0.00       0.00       0.00       0.00       0.00       0.00        0.00     0.00   0.000
  BRE399                    42.80       0.00       0.00       0.00       0.00       0.00       0.00        0.00     0.00   0.000
  BRE400                    42.80       0.00       0.00       0.00       0.00       0.00       0.00        0.00     0.00   0.000
  BRE401                    42.80       0.00       0.00       0.00       0.00       0.00       0.00        0.00     0.00   0.000
  BRE402                    42.80       0.00       0.00       0.00       0.00       0.00       0.00        0.00     0.00   0.000
  BRE403                    42.80       0.00       0.00       0.00       0.00       0.00       0.00        0.00     0.00   0.000
  BRE404                    42.80       0.00       0.00       0.00       0.00       0.00       0.00        0.00     0.00   0.000
  BRE405                    42.80       0.00       0.00       0.00       0.00       0.00       0.00        0.00     0.00   0.000
  BRE407                    42.80       0.00       0.00       0.00       0.00       0.00       0.00        0.00     0.00   0.000
  BRE408                    42.80       0.00       0.00       0.00       0.00       0.00       0.00        0.00     0.00   0.000
  BRE413                    42.80       0.00       0.00       0.00       0.00       0.00       0.00        0.00     0.00   0.000
  BRE415                    42.80       0.00       0.00       0.00       0.00       0.00       0.00        0.00     0.00   0.000
  BRE416                    42.80       0.00       0.00       0.00       0.00       0.00       0.00        0.00     0.00   0.000
  BRE417                    42.80       0.00       0.00       0.00       0.00       0.00       0.00        0.00     0.00   0.000
  BRE418                    42.80       0.00       0.00       0.00       0.00       0.00       0.00        0.00     0.00   0.000
  BRE419                    42.80       0.00       0.00       0.00       0.00       0.00       0.00        0.00     0.00   0.000
  BRE420                    42.80       0.00       0.00       0.00       0.00       0.00       0.00        0.00     0.00   0.000
  BRE421                    42.80       0.00       0.00       0.00       0.00       0.00       0.00        0.00     0.00   0.000
  BRE423                    42.80       0.00       0.00       0.00       0.00       0.00       0.00        0.00     0.00   0.000
  BRE425                    42.80       0.00       0.00       0.00       0.00       0.00       0.00        0.00     0.00   0.000
  SCA001                    21.80       0.00       0.00       0.86       1.11       0.00       1.11        9.29     0.09   0.051
  SCA002                    21.80       0.00       0.00       7.53       1.02       0.00       1.03       63.98     0.65   0.047
  SCA003                    21.80       0.00       0.00       9.29       1.46       0.00       1.47       56.11     0.60   0.067
  SCA004                    21.80       0.00       0.00       2.38       5.65       0.01       5.66        4.21     0.05   0.259
  SCA006                    21.80       0.00       0.00       4.99       1.33       0.00       1.33       40.54     0.41   0.061
  SCA007                    21.80       0.00       0.00       7.66       1.57       0.00       1.58       30.34     0.32   0.072
  SCA008                    21.80       0.00       0.00       2.00       4.04       0.01       4.04       37.44     0.43   0.185
  SCA009                    21.80       0.00       0.00       2.82       0.62       0.00       0.62       26.55     0.26   0.028
  SCA013                    21.80       0.00       0.00       2.80       0.70       0.00       0.70       45.87     0.45   0.032
  SCA014                    21.80       0.00       0.00       2.41       1.70       0.00       1.71       36.31     0.37   0.078
  SCA015                    21.80       0.00       0.00       1.42       0.56       0.00       0.56      149.22     1.47   0.026
  SCA016                    21.80       0.00       0.00       0.38       1.79       0.00       1.79       11.62     0.12   0.082
  SCA017                    21.80       0.00       0.00      18.15       2.11       0.02       2.13        2.35     0.12   0.098
  SCA020                    21.80       0.00       0.00       0.60       1.84       0.00       1.84        4.82     0.05   0.084
  SCA021                    21.80       0.00       0.00       1.37       0.43       0.00       0.43       15.28     0.15   0.020
  SCA022                    21.80       0.00       0.00       5.76       1.03       0.00       1.03       28.35     0.29   0.047
  SCA023                    21.80       0.00       0.00       8.07       0.97       0.00       0.97      108.98     1.11   0.045
  SCA026                    21.80       0.00       0.00       7.03       0.55       0.00       0.55      109.32     1.08   0.025
  SCA027                    21.80       0.00       0.00      15.20       0.83       0.00       0.83       24.97     0.27   0.038
  SCA028                    21.80       0.00       0.00       2.72       0.36       0.00       0.36       24.93     0.24   0.016
  SCA031                    21.80       0.00       0.00       2.29       0.65       0.00       0.65       61.95     0.61   0.030
  SCA035                    21.80       0.00       0.00       0.00       5.00       0.00       5.00        1.89     0.02   0.229
  SCA037                    21.80       0.00       0.00       0.00       3.19       0.00       3.19        2.56     0.03   0.147
  SCA038                    21.80       0.00       0.00       0.00       3.79       0.00       3.79        2.52     0.03   0.174
  SCA040                    21.80       0.00       0.00       5.69       2.07       0.00       2.07       18.26     0.20   0.095
  SCA042                    21.80       0.00       0.00       7.21       1.89       0.00       1.89       22.83     0.24   0.087
  SCA044                    21.80       0.00       0.00       2.72       3.78       0.01       3.78       13.06     0.15   0.173
  SCA046                    21.80       0.00       0.00       0.00       2.51       0.00       2.51        2.37     0.02   0.115
  SCA049                    21.80       0.00       0.00       6.82       5.33       0.01       5.34       18.71     0.25   0.245
  SCA051                    21.80       0.00       0.00      14.26       0.65       0.00       0.65       38.05     0.40   0.030
  SCA054                    21.80       0.00       0.00      11.55       0.78       0.00       0.78       58.52     0.60   0.036
  SCA055                    21.80       0.00       0.00       6.67       1.14       0.00       1.14       50.93     0.52   0.052
  SCA056                    21.80       0.00       0.00       9.41       0.66       0.00       0.66       84.04     0.84   0.030
  SCA057                    21.80       0.00       0.00       8.58       0.45       0.00       0.45       92.90     0.92   0.021
  SCA058                    21.80       0.00       0.00       0.00       4.32       0.00       4.32        3.41     0.04   0.198
  SCA059                    21.80       0.00       0.00      11.33       0.54       0.00       0.54       81.91     0.82   0.025
  SCA060                    21.80       0.00       0.00       4.67       0.89       0.00       0.89       65.66     0.66   0.041
  SCA062                    21.80       0.00       0.00       1.52       3.18       0.00       3.18        4.89     0.05   0.146
  SCA063                    21.80       0.00       0.00       6.47       1.47       0.00       1.47       56.35     0.59   0.067
  SCA064                    21.80       0.00       0.00       9.50       0.98       0.00       0.98       31.53     0.32   0.045
  SCA065                    21.80       0.00       0.00       5.98       0.52       0.00       0.52       84.78     0.84   0.024
  SCA066                    21.80       0.00       0.00       8.88       0.60       0.00       0.60      159.96     1.60   0.028
  SCA067                    21.80       0.00       0.00       4.20       0.94       0.00       0.94       86.17     0.86   0.043
  SCA069                    21.80       0.00       0.00       5.13       1.48       0.00       1.48       75.49     0.78   0.068
  SCA071                    21.80       0.00       0.00       1.76       0.99       0.00       0.99       11.19     0.11   0.045
  SCA072                    21.80       0.00       0.00       0.00       6.08       0.00       6.08        2.19     0.03   0.279
  SCA073                    21.80       0.00       0.00       4.69       0.53       0.00       0.53      190.41     1.87   0.024
  SCA077                    21.80       0.00       0.00       4.03       2.35       0.00       2.36       16.50     0.18   0.108
  SCA079                    21.80       0.00       0.00       0.00       7.99       0.00       7.99        0.32     0.00   0.367
  SCA085                    21.80       0.00       0.00       7.11       2.13       0.00       2.13       33.22     0.36   0.098
  SCA088                    21.80       0.00       0.00      14.78       3.32       0.01       3.33        8.38     0.15   0.153
  SCA091                    21.80       0.00       0.00      10.17       0.77       0.00       0.77      146.30     1.49   0.035
  SCA096                    21.80       0.00       0.00       5.14       0.78       0.00       0.78       63.07     0.63   0.036
  SCA097                    21.80       0.00       0.00      11.64       0.28       0.00       0.28       12.90     0.13   0.013
  SCA098                    21.80       0.00       0.00      10.43       1.84       0.00       1.84       17.48     0.19   0.084
  SCA099                    21.80       0.00       0.00       5.55       0.47       0.00       0.47       33.46     0.33   0.022
  SCA100                    21.80       0.00       0.00       2.77       3.75       0.01       3.75       11.83     0.13   0.172
  SCA101                    21.80       0.00       0.00       3.52       1.17       0.00       1.18      101.59     1.03   0.054
  SCA102                    21.80       0.00       0.00       8.53       2.34       0.00       2.34       22.84     0.26   0.107
  SCA103                    21.80       0.00       0.00       1.94       1.22       0.00       1.22       60.28     0.61   0.056
  SCA104                    21.80       0.00       0.00       0.00       5.03       0.00       5.03        1.01     0.01   0.231
  SCA105                    21.80       0.00       0.00       1.27       2.44       0.00       2.45       14.01     0.15   0.112
  SCA106                    21.80       0.00       0.00       2.32       2.54       0.00       2.54       12.85     0.14   0.116
  SCA107                    21.80       0.00       0.00       2.11       0.84       0.00       0.84       19.79     0.20   0.039
  SCA108                    21.80       0.00       0.00       0.16       0.58       0.00       0.58       11.55     0.11   0.027
  SCA109                    21.80       0.00       0.00       5.99       0.45       0.00       0.46       70.23     0.69   0.021
  SCA110                    21.80       0.00       0.00       5.48       0.36       0.00       0.36       63.32     0.62   0.017
  SCA111                    21.80       0.00       0.00       0.00       4.62       0.00       4.62        2.96     0.03   0.212
  SCA112                    21.80       0.00       0.00       1.31       0.40       0.00       0.40       25.39     0.25   0.018
  SCA113                    21.80       0.00       0.00       8.87       0.68       0.00       0.68      116.73     1.17   0.031
  SCA114                    21.80       0.00       0.00       4.51       0.92       0.00       0.92       49.88     0.50   0.042
  SCA115                    21.80       0.00       0.00       0.36       1.57       0.00       1.57       39.14     0.40   0.072
  SCA116                    21.80       0.00       0.00       0.00       7.99       0.00       7.99        0.32     0.00   0.367
  SCA117                    21.80       0.00       0.00       0.00       1.92       0.00       1.92        3.45     0.04   0.088
  SCA118                    21.80       0.00       0.00       0.51       2.04       0.00       2.04        9.85     0.10   0.094
  SCA119                    21.80       0.00       0.00      11.30       0.28       0.00       0.28       39.84     0.39   0.013
  SCA120                    21.80       0.00       0.00      11.98       1.91       0.00       1.92       23.71     0.27   0.088
  SCA121                    21.80       0.00       0.00       2.88       0.76       0.00       0.76       27.41     0.27   0.035
  SCA122                    21.80       0.00       0.00       0.00       3.10       0.00       3.10       15.42     0.17   0.142
  SCA123                    21.80       0.00       0.00      10.55       1.09       0.00       1.09       32.30     0.34   0.050
  SCA124                    21.80       0.00       0.00       0.00       2.97       0.00       2.97        4.51     0.05   0.136
  SCA125                    21.80       0.00       0.00       5.11       3.16       0.00       3.16       28.00     0.32   0.145
  SCA126                    21.80       0.00       0.00       9.86       1.57       0.00       1.57      125.28     1.35   0.072
  SCA127                    21.80       0.00       0.00       4.65       1.04       0.00       1.04       88.45     0.89   0.048
  SCA128                    21.80       0.00       0.00       9.65       0.50       0.00       0.50       72.67     0.72   0.023
  SCA129                    21.80       0.00       0.00       4.36       1.00       0.00       1.00       25.97     0.26   0.046
  SCA131                    21.80       0.00       0.00      10.14       1.40       0.00       1.41      153.91     1.64   0.065
  SCA132                    21.80       0.00       0.00       8.52       0.90       0.00       0.90      176.50     1.79   0.041
  SCE025                    42.80       0.00       0.00       0.63       6.73       0.08       6.81       11.99     0.13   0.159
  SCE032                    42.80       0.00       0.00       9.63       2.24       0.03       2.27      184.86     1.84   0.053
  SCE033                    42.80       0.00       0.00       8.34       5.08       0.07       5.15      471.05     5.02   0.120
  SCE039                    42.80       0.00       0.00       9.39       2.49       0.03       2.52      203.62     2.04   0.059
  SCE041                    42.80       0.00       0.00      10.64       4.85       0.07       4.92      366.24     3.95   0.115
  SCE043                    42.80       0.00       0.00       5.44       6.89       0.10       6.98       83.54     0.91   0.163
  SCE045                    42.80       0.00       0.00       9.94       2.69       0.03       2.73      261.96     2.64   0.064
  SCE048                    42.80       0.00       0.00       8.35       6.73       0.10       6.83       60.93     0.68   0.160
  SCE061                    42.80       0.00       0.00      15.47       5.51       0.09       5.60       23.16     0.27   0.131
  SCE074                    42.80       0.00       0.00      13.70       8.30       0.15       8.45      171.57     2.22   0.197
  SCE075                    42.80       0.00       0.00      10.78       7.04       0.11       7.14       65.73     0.76   0.167
  SCE076                    42.80       0.00       0.00       0.00       6.44       0.00       6.44       10.56     0.11   0.150
  SCE078                    42.80       0.00       0.00       3.97       6.44       0.09       6.53      106.73     1.14   0.153
  SCE080                    42.80       0.00       0.00       1.94       7.05       0.09       7.14       27.47     0.29   0.167
  SCE081                    42.80       0.00       0.00       0.00      14.78       0.00      14.78        9.73     0.12   0.345
  SCE082                    42.80       0.00       0.00       9.61       2.85       0.04       2.89      244.43     2.47   0.068
  SCE083                    42.80       0.00       0.00       2.37       7.95       0.11       8.06       46.48     0.51   0.188
  SCE084                    42.80       0.00       0.00       9.22       1.69       0.02       1.71      236.69     2.32   0.040
  SCE086                    42.80       0.00       0.00       7.88       1.40       0.02       1.41      248.34     2.41   0.033
  SCE087                    42.80       0.00       0.00       3.26      12.49       0.19      12.68        8.62     0.11   0.296
  SCE089                    42.80       0.00       0.00      16.77       9.72       0.23       9.95       79.78     1.30   0.232
  SCE090                    42.80       0.00       0.00       0.81      17.18       0.20      17.38       71.60     0.96   0.406
  SCE092                    42.80       0.00       0.00       3.13      16.51       0.27      16.78       71.67     0.98   0.392
  SCE093                    42.80       0.00       0.00       5.54       4.02       0.05       4.07      280.91     2.87   0.095
  SCE094                    42.80       0.00       0.00      14.91       2.74       0.04       2.78      264.92     2.76   0.065
  SCE095                    42.80       0.00       0.00      12.48       6.26       0.10       6.35      120.31     1.39   0.148
  
  
  ******************
  Node Depth Summary
  ******************
  
  ---------------------------------------------------------------------------------
                                 Average  Maximum  Maximum  Time of Max    Reported
                                   Depth    Depth      HGL   Occurrence   Max Depth
  Node                 Type       Meters   Meters   Meters  days hr:min      Meters
  ---------------------------------------------------------------------------------
  E001                 JUNCTION     0.00     0.00    81.72     0  00:00        0.00
  E002                 JUNCTION     0.00     0.00    81.77     0  00:00        0.00
  E003                 JUNCTION     0.14     0.22    80.73     0  20:35        0.22
  E004                 JUNCTION     0.00     0.00    80.85     0  00:00        0.00
  E005                 JUNCTION     0.00     0.00    78.40     0  00:00        0.00
  E006                 JUNCTION     0.16     0.24    77.47     0  20:35        0.24
  E007                 JUNCTION     0.00     0.00    80.32     0  00:00        0.00
  E009                 JUNCTION     0.00     0.00    79.84     0  00:00        0.00
  E010                 JUNCTION     0.00     0.00    79.88     0  00:00        0.00
  E011                 JUNCTION     0.00     0.00    79.83     0  00:00        0.00
  E015                 JUNCTION     0.12     0.20    74.00     0  20:35        0.20
  E019                 JUNCTION     0.00     0.00    76.67     0  00:00        0.00
  E020                 JUNCTION     0.00     0.00    78.87     0  00:00        0.00
  E022                 JUNCTION     0.00     0.00    78.47     0  00:00        0.00
  E026                 JUNCTION     0.14     0.22    70.97     0  20:35        0.22
  E027                 JUNCTION     0.00     0.00    69.94     0  00:00        0.00
  E029                 JUNCTION     0.00     0.00    78.27     0  00:00        0.00
  E033                 JUNCTION     0.13     0.21    70.46     0  20:35        0.21
  E034                 JUNCTION     0.00     0.00    69.94     0  00:00        0.00
  E036                 JUNCTION     0.00     0.00    77.89     0  00:00        0.00
  E037                 JUNCTION     0.00     0.00    77.88     0  00:00        0.00
  E038                 JUNCTION     0.00     0.00    69.87     0  00:00        0.00
  E040                 JUNCTION     0.00     0.00    69.05     0  00:00        0.00
  E041                 JUNCTION     0.00     0.00    77.70     0  00:00        0.00
  E044                 JUNCTION     0.00     0.00    69.94     0  00:00        0.00
  E046                 JUNCTION     0.15     0.24    64.52     0  20:36        0.24
  E047                 JUNCTION     0.00     0.00    70.70     0  00:00        0.00
  E049                 JUNCTION     0.00     0.00    77.05     0  00:00        0.00
  E050                 JUNCTION     0.00     0.00    76.14     0  00:00        0.00
  E051                 JUNCTION     0.00     0.00    72.89     0  00:00        0.00
  E053                 JUNCTION     0.00     0.00    72.84     0  00:00        0.00
  E055                 JUNCTION     0.00     0.00    76.80     0  00:00        0.00
  E057                 JUNCTION     0.00     0.00    76.56     0  00:00        0.00
  E058                 JUNCTION     0.00     0.00    64.82     0  00:00        0.00
  E059                 JUNCTION     1.20     1.98    63.28     0  20:35        1.97
  E062                 JUNCTION     1.09     1.76    63.04     0  20:36        1.75
  E063                 JUNCTION     0.00     0.00    71.62     0  00:00        0.00
  E064                 JUNCTION     3.96     4.69    62.65     0  20:35        4.68
  E065                 JUNCTION     0.03     0.60    64.62     0  20:35        0.59
  E068                 JUNCTION     3.35     4.17    62.00     0  16:20        4.17
  E069                 JUNCTION     3.23     4.04    62.00     0  16:20        4.04
  E070                 JUNCTION     1.46     3.89    62.00     0  20:25        3.89
  E071                 JUNCTION     0.00     0.00    70.70     0  00:00        0.00
  A072                 JUNCTION     0.89     1.34    58.38     0  21:54        1.34
  E073                 JUNCTION     8.64    10.41    74.28     0  18:02       10.41
  E074                 JUNCTION     0.00     0.00    70.70     0  00:00        0.00
  E075                 JUNCTION     0.00     0.00    70.40     0  00:00        0.00
  E076                 JUNCTION     1.02     3.63    64.63     0  20:35        3.60
  E077                 JUNCTION     0.00     0.00    61.00     0  00:00        0.00
  E078                 JUNCTION     1.25     3.92    64.63     0  20:36        3.90
  E079                 JUNCTION     0.00     0.00    61.00     0  00:00        0.00
  E080                 JUNCTION     1.97     3.25    60.89     0  20:39        3.24
  E081                 JUNCTION     1.35     2.77    57.90     0  21:37        2.77
  E082                 JUNCTION     0.00     0.00    69.14     0  00:00        0.00
  A083                 JUNCTION     1.40     2.09    58.39     0  23:56        2.08
  E084                 JUNCTION     1.12     2.10    56.46     0  21:28        2.09
  E085                 JUNCTION     3.12     4.22    68.06     0  16:23        4.22
  E086                 JUNCTION     0.00     0.00    63.84     0  00:00        0.00
  E087                 JUNCTION     0.22     0.83    55.69     0  19:25        0.51
  E088                 JUNCTION     3.11     4.23    68.07     0  18:30        4.23
  E089                 JUNCTION     0.00     0.00    63.87     0  00:00        0.00
  E090                 JUNCTION     0.00     0.00    85.23     0  00:00        0.00
  E091                 JUNCTION     0.24     0.49    68.21     0  16:26        0.36
  E092                 JUNCTION     0.71     1.22    66.40     0  20:35        1.21
  E093                 JUNCTION     0.27     0.53    68.21     0  16:26        0.40
  A094                 JUNCTION     2.06     3.01    58.39     0  21:21        3.00
  E095                 JUNCTION     0.42     0.74    68.20     0  16:26        0.62
  E096                 JUNCTION     2.92     3.70    55.38     0  21:38        3.69
  E097                 JUNCTION     0.58     1.02    55.38     0  21:49        1.01
  A098                 JUNCTION     1.09     1.64    58.39     0  22:04        1.63
  E099                 JUNCTION     2.99     4.26    68.10     0  16:25        4.22
  E100                 JUNCTION     0.31     2.12    69.80     0  16:27        0.44
  E101                 JUNCTION     2.62     3.25    54.93     0  20:35        3.25
  E102                 JUNCTION     0.00     0.00    67.64     0  00:00        0.00
  E103                 JUNCTION     0.29     0.42    68.06     0  19:31        0.42
  E104                 JUNCTION     1.07     1.57    68.12     0  16:25        1.51
  E105                 JUNCTION     0.64     1.89    64.44     0  20:35        1.85
  A106                 JUNCTION     2.65     3.64    58.35     1  13:51        3.63
  E107                 JUNCTION     1.76     3.26    62.14     0  20:35        3.25
  E108                 JUNCTION     2.40     3.25    60.89     0  20:39        3.24
[...]
  E145.E136.214           1.00   1.00  0.00  0.00  0.00  0.00  0.00  0.00  0.00  0.00
  E147.E149.150           1.00   0.14  0.00  0.00  0.60  0.24  0.00  0.03  0.18  0.00
  E147.E163.386           1.00   0.14  0.00  0.00  0.09  0.77  0.00  0.00  0.35  0.00
  E148.E108.367           1.00   0.34  0.00  0.00  0.00  0.00  0.00  0.66  0.00  0.00
  E148.E147.148           1.00   0.14  0.00  0.00  0.44  0.43  0.00  0.00  0.06  0.00
  E149.E151.364           1.00   0.16  0.00  0.00  0.72  0.03  0.00  0.08  0.10  0.00
  E150.E132.245           1.00   0.34  0.00  0.00  0.66  0.00  0.00  0.00  0.00  0.00
  E150.E159.345           1.00   0.34  0.00  0.00  0.66  0.00  0.00  0.00  0.00  0.00
  E151.E152.276           1.00   0.16  0.02  0.00  0.76  0.00  0.06  0.00  0.00  0.00
  E152.E154.277           1.00   0.12  0.03  0.00  0.85  0.00  0.00  0.00  0.00  0.00
  E154.XXXX000497.365     1.00   0.10  0.23  0.00  0.00  0.00  0.68  0.00  0.00  0.00
  E163.E170.388           1.00   0.14  0.00  0.00  0.55  0.31  0.00  0.01  0.23  0.00
  E164.E145.213           1.00   1.00  0.00  0.00  0.00  0.00  0.00  0.00  0.00  0.00
  E165.E164.212           1.00   1.00  0.00  0.00  0.00  0.00  0.00  0.00  0.00  0.00
  E166.E168.250           1.00   0.34  0.00  0.00  0.66  0.00  0.00  0.00  0.00  0.00
  E168.E176.251           1.00   0.10  0.24  0.00  0.66  0.00  0.00  0.00  0.66  0.00
  E170.XXXX000499.389     1.00   0.14  0.86  0.00  0.00  0.00  0.00  0.00  0.00  0.00
  E176.E169.254           1.00   0.10  0.00  0.00  0.00  0.00  0.00  0.90  0.00  0.00
  E176.E194.252           1.00   0.10  0.00  0.00  0.00  0.90  0.00  0.00  0.00  0.00
  E189.E191.300           1.00   1.00  0.00  0.00  0.00  0.00  0.00  0.00  0.00  0.00
  E191.E194.303           1.00   0.10  0.89  0.00  0.01  0.00  0.00  0.00  0.57  0.00
  E194.E196.247           1.00   0.10  0.00  0.00  0.02  0.88  0.00  0.00  0.90  0.00
  E194.E215.246           1.00   0.10  0.00  0.00  0.00  0.85  0.00  0.06  0.84  0.00
  E196.XXXX000513.248     1.00   0.10  0.00  0.00  0.00  0.00  0.00  0.90  0.00  0.00
  E215.XXXX000507.301     1.00   0.15  0.00  0.00  0.00  0.00  0.00  0.85  0.00  0.00
  XXXX000054.XXXX000526.478    1.00   0.10  0.27  0.00  0.60  0.04  0.00  0.00  0.04  0.00
  XXXX000055.XXXX000054.479    1.00   0.36  0.00  0.00  0.60  0.04  0.00  0.00  0.06  0.00
  XXXX000456.XXXX000460.466    1.00   0.00  0.00  0.00  1.00  0.00  0.00  0.00  0.34  0.00
  XXXX000459.XXXX000456.468    1.00   0.00  0.00  0.00  1.00  0.00  0.00  0.00  0.00  0.00
  XXXX000460.XXXX000461.469    1.00   0.00  0.00  0.00  0.60  0.00  0.00  0.40  0.00  0.00
  XXXX000461.XXXX000517.457    1.00   0.00  0.00  0.00  0.66  0.34  0.00  0.00  0.40  0.00
  XXXX000484.XXXX000485.480    1.00   0.10  0.00  0.00  0.90  0.00  0.00  0.00  0.24  0.00
  XXXX000485.EXT03.481    1.00   0.10  0.00  0.00  0.89  0.01  0.00  0.00  0.00  0.00
  XXXX000487.XXXX000484.482    1.00   0.10  0.00  0.00  0.90  0.00  0.00  0.00  0.30  0.00
  XXXX000490.XXXX000492.483    1.00   0.00  0.00  0.00  1.00  0.00  0.00  0.00  0.35  0.00
  XXXX000492.XXXX000497.484    1.00   0.00  0.00  0.00  0.94  0.06  0.00  0.00  0.02  0.00
  XXXX000495.XXXX000490.485    1.00   0.00  0.00  0.00  0.66  0.34  0.00  0.00  0.37  0.00
  XXXX000497.XXXX000505.486    1.00   0.00  0.00  0.00  1.00  0.00  0.00  0.00  0.35  0.00
  XXXX000499.XXXX000504.487    1.00   0.00  0.00  0.00  1.00  0.00  0.00  0.00  0.39  0.00
  XXXX000503.XXXX000507.488    1.00   0.00  0.00  0.00  0.74  0.26  0.00  0.00  0.40  0.00
  XXXX000504.XXXX000503.489    1.00   0.00  0.00  0.00  0.93  0.07  0.00  0.00  0.00  0.00
  XXXX000505.XXXX000506.490    1.00   0.00  0.00  0.00  0.94  0.06  0.00  0.00  0.00  0.00
  XXXX000506.XXXX000499.491    1.00   0.00  0.00  0.00  0.78  0.22  0.00  0.00  0.12  0.00
  XXXX000507.EXT01.492    1.00   0.00  0.00  0.00  0.94  0.06  0.00  0.00  0.00  0.00
  XXXX000511.XXXX000513.458    1.00   0.00  0.00  0.00  0.66  0.34  0.00  0.00  0.01  0.00
  XXXX000513.XXXX000514.459    1.00   0.00  0.00  0.00  0.60  0.40  0.00  0.00  0.05  0.00
  XXXX000514.XXXX000527.460    1.00   0.00  0.00  0.00  0.60  0.40  0.00  0.00  0.40  0.00
  XXXX000515.XXXX000511.461    1.00   0.00  0.00  0.00  0.66  0.34  0.00  0.00  0.35  0.00
  XXXX000517.XXXX000515.462    1.00   0.00  0.00  0.00  0.60  0.40  0.00  0.00  0.00  0.00
  XXXX000520.XXXX000534.493    1.00   0.10  0.00  0.00  0.85  0.05  0.00  0.00  0.24  0.00
  XXXX000526.XXXX000520.494    1.00   0.10  0.00  0.00  0.90  0.00  0.00  0.00  0.30  0.00
  XXXX000527.EXT02.463    1.00   0.00  0.00  0.00  0.66  0.34  0.00  0.00  0.00  0.00
  XXXX000530.XXXX000487.495    1.00   0.10  0.00  0.00  0.84  0.06  0.00  0.00  0.00  0.00
  XXXX000532.XXXX000530.496    1.00   0.10  0.00  0.00  0.90  0.00  0.00  0.00  0.30  0.00
  XXXX000534.XXXX000532.497    1.00   0.10  0.00  0.00  0.85  0.05  0.00  0.00  0.00  0.00
  
  
  *************************
  Conduit Surcharge Summary
  *************************
  
  ----------------------------------------------------------------------------
                                                           Hours        Hours 
                         --------- Hours Full --------   Above Full   Capacity
  Conduit                Both Ends  Upstream  Dnstream   Normal Flow   Limited
  ----------------------------------------------------------------------------
  A072.A083.146              28.66     28.66     30.53      0.01         0.01
  A083.A094.133              30.40     30.40     30.77      0.01         0.01
  A094.A115.149              30.83     30.83     31.35      0.01         0.01
  A098.A094.147              28.75     28.75     30.74      0.01         0.01
  A106.XXXX000055.153         0.01      0.01     30.46      0.01         0.01
  A109.A106.378              33.73     33.73     33.83     28.71         0.30
  A112.A109.376              31.38     31.38     31.39      0.01         0.57
  A115.A112.152              31.31     31.31     31.38      0.01         0.01
  A118.A115.151              31.07     31.07     31.35      0.01         0.01
  A119.XXXX000520.135         0.01      0.01     32.36      0.01         0.01
  A120.A121.402              28.64     28.64     28.66     28.36        28.35
  A121.A128.14               28.63     28.63     28.66     28.27        28.27
  A122.A119.134              32.95     32.95     38.52      0.01         0.01
  A122.XXXX000526.282         0.01      0.01     28.51      0.01         0.01
  A124.A122.142              32.51     32.51     32.95     28.53        28.55
  A127.A120.401              28.51     28.51     28.69      0.01         0.01
  A127.A124.141              28.76     28.76     32.42      0.01         0.01
  A128.A131.400              28.51     28.51     28.54      0.01         0.01
  A133.A118.296              30.87     30.87     31.07      0.01         0.01
  A137.A133.115              28.68     28.68     31.07      0.01         0.01
  A138.A137.237              28.49     28.49     28.68      0.01         0.01
  A141.A122.393              32.93     32.93     32.95     28.21        21.35
  A144.A131.139              28.40     28.40     28.66      0.01         0.01
  A153.A138.403               0.01      0.01     28.44      0.01         0.01
  A157.XXXX000492.118         0.01      0.01     39.75      0.01         0.01
  A158.A157.117              28.02     28.02     40.64      0.01         0.01
  A161.A158.227               0.01      0.01     28.63      0.01         0.01
  A162.A137.116               0.01      0.01     28.54      0.01         0.01
  A171.A144.145              28.01     28.01     28.40      0.01         0.01
  A172.A171.144              24.67     24.67     28.01      0.01         0.01
  A187.XXXX000530.186         0.01      0.01     31.40      0.01         0.01
  A188.A181.360               0.01      0.01     28.30      0.01         0.01
  A193.A188.342               0.01      0.01     28.37      0.01         0.01
  A195.A187.185               0.01      0.01     34.41      0.01         0.01
  A204.A208.138               0.01      0.01     27.98      0.01         0.01
  A208.A204.137              28.38     28.38     28.75      0.01         0.01
  A208.A204.140              28.47     28.47     28.78      0.01         0.01
  A208.A222.346               0.01      0.01     29.30      0.01         0.01
  A219.A217.202              31.42     31.42     39.34     28.39        28.39
  A225.A232.327               0.01      0.01     30.16      0.01         0.01
  A236.A223.220               0.01      0.01      0.01     28.59         0.01
  A248.A256.257               0.01      0.01     29.95      0.01         0.01
  A250.A241.122              31.38     31.38     31.48      0.01         0.01
  A256.A258.90               29.95     29.95     29.96      0.01         0.73
  A257.A260.284              31.43     31.43     31.43      0.01         0.01
  A258.A257.258              29.96     29.96     31.11      0.01         0.01
  A267.A236.233               0.01      0.01      0.01     28.74         0.01
  A269.A250.128              31.29     31.29     31.38      0.01         0.01
  A278.A269.127              31.13     31.13     31.29      0.01         0.01
  A295.A278.32               31.40     31.40     31.54     28.83        28.83
  A300.A295.126              31.04     31.04     31.08      0.01         0.01
  A303.A296.52                0.01     31.38      0.01     31.40         0.01
  A307.A300.124              31.02     31.02     31.04      0.01         0.01
  A310.A318.114              30.00     30.00     30.39      0.01         0.01
  A311.A318.106              29.81     29.81     30.30      0.01         0.01
  A312.A305.73                0.01      0.01     28.37      0.01         0.01
  A314.A307.129              31.02     31.02     31.02      0.01         0.01
  A315.A303.50               31.38     31.39     31.38     31.41        31.37
  A316.A314.30               31.14     31.14     31.21      0.01         0.01
  A318.A320.109              30.30     30.30     30.44      0.01         0.01
  A320.A330.47               30.44     30.44     31.06      0.01         0.01
  A325.A315.48               31.07     31.07     31.12     28.72        28.67
  A330.A325.49               30.92     30.92     31.07      0.01         0.01
  A332.A317.104              28.71     29.94     28.71     31.28        28.71
  A333.A339.69                0.01      0.01      0.01      0.01         0.01
  A335.A330.174              30.82     30.82     30.92      0.01         0.01
  A339.A352.70                0.01      0.01     28.75      0.01         0.01
  A341.A332.103              28.79     28.79     29.13      0.01         0.01
  A343.A335.173              30.64     30.64     30.82      0.01         0.01
  A346.A329.55                0.01      0.01     28.75      0.01         0.01
  A346.A343.45               30.60     30.60     30.64      0.01         0.01
  A348.A341.63               28.73     28.73     28.79      0.01         0.01
  A352.A357.61               28.80     28.80     30.45      0.01         0.01
  A354.A358.72                0.01      0.01     28.71      0.01         0.01
  A355.A346.56               30.51     30.51     30.60     28.71        28.75
  A356.A348.62               28.72     28.72     28.73      0.01         0.01
  A357.A355.53               30.41     30.41     30.51      0.01         0.01
  A358.A363.58               28.70     28.70     30.40      0.01         0.01
  A361.A370.302               0.01      0.01      2.32      0.01         0.01
  A362.A357.51               30.34     30.34     30.41     28.70        28.74
  A363.A362.60               30.25     30.25     30.34      0.01         0.02
  A365.A356.83               28.70     28.70     28.72      0.01         0.01
  A366.A374.93               28.51     28.51     28.75      0.01         0.01
  A368.A369.287              28.55     28.55     28.58      0.01         0.01
  A370.A375.305               0.01      0.01      0.03      0.01         0.01
  A371.A363.59               28.83     28.83     30.25      0.01         0.02
  A373.A370.304               0.01      0.01      0.13      0.01         0.01
  A374.A371.92               28.77     28.77     28.83      0.01         0.01
  A375.A387.306               0.03      0.03     28.23      0.01         0.01
  A378.A374.91               28.67     28.67     28.77      0.01         0.01
  A379.A365.54                0.01      0.01     28.70      0.01         0.01
  A380.A384.64               28.45     28.45     28.46      0.01         0.04
  A383.A378.31                0.01      0.01     28.67      0.01         0.01
  A385.A400.155               0.01      0.01     28.28      0.01         0.01
  A387.A398.308              28.24     28.24     28.58      0.01         0.01
  A390.A384.88                0.01     28.67      0.01     28.74         0.01
  A396.A382.27               28.03     28.03     28.30      0.01         0.01
  A396.A390.89               28.64     28.64     28.67     28.55        28.55
  A397.A396.34               28.58     28.58     28.64      0.23         0.25
  A398.A397.33               28.58     28.59     28.58     28.70        28.58
  A400.A411.156              28.29     28.29     28.47      0.01         0.01
  A402.A398.311              28.35     28.35     28.49      0.01         0.01
  A404.A402.309              28.35     28.35     28.35      0.01         0.01
  A408.A398.298              28.57     28.57     28.58     28.62        28.57
  A409.A414.160               0.01      0.01     26.66      0.01         0.01
  A410.A411.136              28.45     28.45     28.47      0.01         0.01
  A411.A408.310              28.47     28.47     28.57      0.01         0.01
  A414.A420.166              26.66     26.66     28.26      0.01         0.01
  A415.A411.337              28.38     28.38     28.47      0.01         0.01
  A418.A415.38               28.27     28.27     28.38      0.01         0.01
  A420.A418.37               28.26     28.26     28.27      0.01         0.01
  A424.A420.36               27.84     27.84     28.26      0.01         0.01
  A427.A424.42                0.01      0.01     27.84      0.01         0.01
  E046.E059.8                 0.01      0.01     28.62      0.01         0.01
  E059.E062.271              28.55     28.62     28.55     31.42        28.55
  E062.E064.267              28.55     28.70     28.55     31.47        28.55
  E064.E068.269              28.55     28.55     36.97      0.01         0.01
  E065.E076.274               0.01      0.01     27.68      0.01         0.01
  E069.E068.399              35.87     35.87     36.04      0.01         0.01
  E070.E081.1                22.65     22.65     28.58     16.40        16.40
  E073.E085.265              30.05     30.05     32.98     29.88        29.88
  E076.E078.278               9.37      9.37     14.75      0.01         0.01
  E078.E070.7                14.59     14.59     19.27      2.93         2.94
  E080.E110.19                0.01      0.01     27.66      0.01         0.01
  E081.E084.2                26.10     27.78     26.10     28.60        26.10
  E084.E096.3                28.62     28.62     31.62      0.01         0.01
  E087.E097.371              22.79     22.79     28.15      0.01         0.01
  E088.E085.6                31.60     31.60     31.61      0.01         0.01
  E092.E105.382               0.01      0.01      3.32      0.01         0.01
  E095.E100.231               0.01      0.01     31.46      0.01         0.01
  E096.E101.4                31.56     31.56     37.69      0.01         0.01
  E097.E096.368              22.78     22.78     31.51      0.01         0.01
  E099.E088.5                31.57     31.57     31.60      0.01         0.01
  E099.E104.238               0.01      0.01     31.53      0.01         0.01
  E101.XXXX000490.370         0.01      0.01     31.62      0.01         0.01
  E105.E107.384               4.02      4.02     31.50      0.01         0.01
  E105.E129.179               7.17      7.17     12.85      0.01         0.01
  E107.E108.377              31.50     31.50     34.92      0.21         0.21
  E108.E110.379              31.54     31.54     34.92      0.01         0.01
  E125.E104.243               0.01      0.01     31.51      0.01         0.01
  E129.E140.178              12.85     12.85     14.26      0.05         0.01
  E139.E140.275               1.24      1.24     16.30      0.01         0.01
  E140.E148.366              16.30     16.30     28.68      0.06         0.01
  E147.E149.150              19.72     19.72     29.91      0.01         0.01
  E147.E163.386               4.17      4.17     11.93      0.01         0.01
  E148.E147.148              19.72     28.68     19.72     28.73        19.72
  E149.E151.364              29.91     29.91     31.51      4.20         4.19
  E150.E159.345               0.04      0.04     31.51      0.01         0.01
  E151.E152.276              31.51     31.51     35.24      0.01         0.01
  E152.E154.277              35.24     35.24     36.67     29.98        29.98
  E154.XXXX000497.365         0.01      0.01     32.46      0.01         0.01
  E163.E170.388              11.93     11.93     31.58      0.01         0.01
  E176.E169.254               0.01     11.46      0.01     31.44         0.01
  XXXX000054.XXXX000526.478        0.01      0.01     28.54      0.01         0.01
  XXXX000055.XXXX000054.479        0.01      0.01     25.76      0.01         0.01
  XXXX000459.XXXX000456.468        0.01      0.01      0.01      0.04         0.01
  XXXX000461.XXXX000517.457        3.86      3.86     28.66      0.01         0.01
  XXXX000484.XXXX000485.480        0.01     13.20      0.01     28.72         0.01
  XXXX000485.EXT03.481        0.01      0.01      0.01     28.70         0.01
  XXXX000487.XXXX000484.482        0.01      0.01     13.20      0.01         0.01
  XXXX000490.XXXX000492.483       27.20     27.21     28.61      0.71         0.67
  XXXX000492.XXXX000497.484       28.60     28.61     28.60     29.24        28.60
  XXXX000495.XXXX000490.485        1.46      1.46     27.21      0.01         0.01
  XXXX000497.XXXX000505.486       28.60     28.60     28.62      0.01         0.01
  XXXX000499.XXXX000504.487       28.60     28.61     28.60     22.10        22.09
  XXXX000503.XXXX000507.488        0.01      0.01     28.59      0.01         0.01
  XXXX000504.XXXX000503.489        0.01     28.60      0.01     28.65         0.01
  XXXX000505.XXXX000506.490       28.59     28.62     28.59     28.72        28.59
  XXXX000506.XXXX000499.491       28.59     28.59     28.61      0.01         0.01
  XXXX000507.EXT01.492        0.01     28.59      0.01     28.75         0.01
  XXXX000511.XXXX000513.458       28.69     28.70     28.69     28.74        28.69
  XXXX000513.XXXX000514.459       28.50     28.69     28.50     28.75        28.50
  XXXX000514.XXXX000527.460        0.01     28.49      0.01     28.72         0.01
  XXXX000515.XXXX000511.461       28.65     28.65     28.70      0.01         0.01
  XXXX000517.XXXX000515.462       28.65     28.66     28.65     28.73        28.63
  XXXX000520.XXXX000534.493       28.62     28.68     28.62     28.74        28.62
  XXXX000526.XXXX000520.494       28.54     28.54     28.68      0.01         0.01
  XXXX000527.EXT02.463        0.01      0.01      0.01     28.74         0.01
  XXXX000530.XXXX000487.495        0.01     28.58      0.01     28.64         0.01
  XXXX000532.XXXX000530.496       28.58     28.59     28.58     13.63        14.24
  XXXX000534.XXXX000532.497       28.59     28.62     28.59     28.66        28.59
  

  Analysis begun on:  Thu Mar 19 14:07:32 2026
  Analysis ended on:  Thu Mar 19 14:14:08 2026
  Total elapsed time: 00:06:36